real-data-new/processed_file/inventories/test_cases_v36/machines.csv
bus,id,status,Pgen,Qgen,Pmax,Pmin,Qmax,Qmin,MBASE,voltage_setpoint,regulated_bus,WMOD,WPF
40,1,1,100.00439882278442,22.129440307617188,9998.999786376953,-9998.999786376953,22.129440307617188,22.129440307617188,520.0,1.0,40,1,1.0
200,1,1,0.0,150.0,9998.999786376953,-9998.999786376953,150.0,150.0,1000.0,1.0,200,1,1.0
900,1,1,-198.96388053894043,-319.3664789199829,9998.999786376953,-9998.999786376953,9998.999786376953,-9998.999786376953,9999.0,1.0,900,0,1.0
201,1,1,0.0,150.0,9998.999786376953,-9998.999786376953,150.0,150.0,1000.0,1.0,201,1,1.0
41,1,1,100.00439882278442,22.129440307617188,9998.999786376953,-9998.999786376953,22.129440307617188,22.129440307617188,520.0,1.0,41,1,1.0
